<?xml version="1.0" encoding="UTF-8"?>

<!-- generated on 2023-04-19 23:58:46 by Eclipse SUMO netedit Version 1.16.0
<configuration xmlns:xsi="http://www.w3.org/2001/XMLSchema-instance" xsi:noNamespaceSchemaLocation="http://sumo.dlr.de/xsd/netconvertConfiguration.xsd">

    <input>
        <sumo-net-file value="D:\AppData\TeamProject\reinforcement_learning\rw_obs\data\2j.net.xml"/>
    </input>

    <output>
        <output-file value="D:\AppData\TeamProject\reinforcement_learning\rw_obs\data\2j.net.xml"/>
        <output.street-names value="true"/>
    </output>

    <processing>
        <geometry.min-radius.fix.railways value="false"/>
        <geometry.max-grade.fix value="false"/>
        <offset.disable-normalization value="true"/>
        <lefthand value="0"/>
    </processing>

    <junctions>
        <no-internal-links value="false"/>
        <no-turnarounds value="true"/>
        <junctions.corner-detail value="5"/>
        <junctions.limit-turn-speed value="5.50"/>
        <rectangular-lane-cut value="0"/>
    </junctions>

    <pedestrian>
        <walkingareas value="1"/>
    </pedestrian>

</configuration>
-->

<net version="1.16" junctionCornerDetail="5" walkingareas="true" limitTurnSpeed="5.50" xmlns:xsi="http://www.w3.org/2001/XMLSchema-instance" xsi:noNamespaceSchemaLocation="http://sumo.dlr.de/xsd/net_file.xsd">

    <location netOffset="-446830.08,-5426312.92" convBoundary="14582.52,54752.90,14782.68,54996.80" origBoundary="8.273244,48.987430,8.656789,49.781239" projParameter="+proj=utm +zone=32 +ellps=WGS84 +datum=WGS84 +units=m +no_defs"/>

    <type id="cycleway.lane" allow="bicycle" bikeLaneWidth="1.00"/>
    <type id="cycleway.lane|cycleway.track|highway.tertiary" priority="10" numLanes="1" speed="13.89" disallow="pedestrian tram rail_urban rail rail_electric rail_fast ship" oneway="0" sidewalkWidth="3.00" bikeLaneWidth="1.50"/>
    <type id="cycleway.lane|highway.primary" priority="12" numLanes="2" speed="13.89" disallow="pedestrian tram rail_urban rail rail_electric rail_fast ship" oneway="0" sidewalkWidth="3.00" bikeLaneWidth="1.00"/>
    <type id="cycleway.lane|highway.primary_link" priority="7" numLanes="1" speed="13.89" disallow="pedestrian tram rail_urban rail rail_electric rail_fast ship" oneway="0" sidewalkWidth="3.00" bikeLaneWidth="1.00"/>
    <type id="cycleway.lane|highway.residential" priority="3" numLanes="1" speed="13.89" disallow="pedestrian tram rail_urban rail rail_electric rail_fast ship" oneway="0" sidewalkWidth="2.00" bikeLaneWidth="1.00"/>
    <type id="cycleway.lane|highway.secondary" priority="11" numLanes="1" speed="13.89" disallow="pedestrian tram rail_urban rail rail_electric rail_fast ship" oneway="0" sidewalkWidth="3.00" bikeLaneWidth="1.00"/>
    <type id="cycleway.lane|highway.tertiary" priority="10" numLanes="1" speed="13.89" disallow="pedestrian tram rail_urban rail rail_electric rail_fast ship" oneway="0" sidewalkWidth="3.00" bikeLaneWidth="1.00"/>
    <type id="cycleway.lane|highway.unclassified" priority="4" numLanes="1" speed="13.89" disallow="pedestrian tram rail_urban rail rail_electric rail_fast ship" oneway="0" sidewalkWidth="2.00" bikeLaneWidth="1.00"/>
    <type id="cycleway.opposite_lane" allow="bicycle" bikeLaneWidth="1.00"/>
    <type id="cycleway.opposite_lane|highway.residential" priority="3" numLanes="1" speed="13.89" disallow="pedestrian tram rail_urban rail rail_electric rail_fast ship" oneway="0" sidewalkWidth="2.00" bikeLaneWidth="1.00"/>
    <type id="cycleway.opposite_track" allow="bicycle" bikeLaneWidth="1.50"/>
    <type id="cycleway.opposite_track|highway.residential" priority="3" numLanes="1" speed="13.89" disallow="pedestrian tram rail_urban rail rail_electric rail_fast ship" oneway="0" sidewalkWidth="2.00" bikeLaneWidth="1.50"/>
    <type id="cycleway.track" allow="bicycle" bikeLaneWidth="1.50"/>
    <type id="cycleway.track|highway.footway" priority="1" numLanes="1" speed="13.89" allow="pedestrian bicycle" oneway="1" width="3.20" bikeLaneWidth="1.50"/>
    <type id="cycleway.track|highway.living_street" priority="2" numLanes="1" speed="13.89" disallow="tram rail_urban rail rail_electric rail_fast ship" oneway="0" bikeLaneWidth="1.50"/>
    <type id="cycleway.track|highway.primary" priority="12" numLanes="2" speed="13.89" disallow="pedestrian tram rail_urban rail rail_electric rail_fast ship" oneway="0" sidewalkWidth="3.00" bikeLaneWidth="1.50"/>
    <type id="cycleway.track|highway.residential" priority="3" numLanes="1" speed="13.89" disallow="pedestrian tram rail_urban rail rail_electric rail_fast ship" oneway="0" sidewalkWidth="2.00" bikeLaneWidth="1.50"/>
    <type id="cycleway.track|highway.secondary" priority="11" numLanes="1" speed="13.89" disallow="pedestrian tram rail_urban rail rail_electric rail_fast ship" oneway="0" sidewalkWidth="3.00" bikeLaneWidth="1.50"/>
    <type id="cycleway.track|highway.tertiary" priority="10" numLanes="1" speed="13.89" disallow="pedestrian tram rail_urban rail rail_electric rail_fast ship" oneway="0" sidewalkWidth="3.00" bikeLaneWidth="1.50"/>
    <type id="cycleway.track|highway.unclassified" priority="4" numLanes="1" speed="13.89" disallow="pedestrian tram rail_urban rail rail_electric rail_fast ship" oneway="0" sidewalkWidth="2.00" bikeLaneWidth="1.50"/>
    <type id="highway.bridleway" priority="1" numLanes="1" speed="2.78" allow="pedestrian" oneway="1" width="2.00"/>
    <type id="highway.bus_guideway" priority="1" numLanes="1" speed="13.89" allow="bus" oneway="1"/>
    <type id="highway.cycleway" priority="1" numLanes="1" speed="5.56" allow="bicycle" oneway="0" width="1.00"/>
    <type id="highway.footway" priority="1" numLanes="1" speed="2.78" allow="pedestrian" oneway="1" width="2.00"/>
    <type id="highway.ford" priority="1" numLanes="1" speed="2.78" allow="army" oneway="0"/>
    <type id="highway.living_street" priority="2" numLanes="1" speed="2.78" disallow="tram rail_urban rail rail_electric rail_fast ship" oneway="0"/>
    <type id="highway.motorway" priority="14" numLanes="2" speed="27.78" allow="private emergency authority army vip passenger hov taxi bus coach delivery truck trailer motorcycle evehicle custom1 custom2" oneway="1"/>
    <type id="highway.motorway_link" priority="9" numLanes="1" speed="16.67" allow="private emergency authority army vip passenger hov taxi bus coach delivery truck trailer motorcycle evehicle custom1 custom2" oneway="1"/>
    <type id="highway.path" priority="1" numLanes="1" speed="5.56" allow="pedestrian bicycle" oneway="0" width="2.00"/>
    <type id="highway.pedestrian" priority="1" numLanes="1" speed="2.78" allow="pedestrian" oneway="1" width="2.00"/>
    <type id="highway.primary" priority="12" numLanes="2" speed="13.89" disallow="pedestrian tram rail_urban rail rail_electric rail_fast ship" oneway="0" sidewalkWidth="3.00"/>
    <type id="highway.primary_link" priority="7" numLanes="1" speed="13.89" disallow="pedestrian tram rail_urban rail rail_electric rail_fast ship" oneway="0" sidewalkWidth="3.00"/>
    <type id="highway.raceway" priority="15" numLanes="2" speed="83.33" allow="vip" oneway="0"/>
    <type id="highway.residential" priority="3" numLanes="1" speed="13.89" disallow="pedestrian tram rail_urban rail rail_electric rail_fast ship" oneway="0" sidewalkWidth="2.00"/>
    <type id="highway.secondary" priority="11" numLanes="1" speed="13.89" disallow="pedestrian tram rail_urban rail rail_electric rail_fast ship" oneway="0" sidewalkWidth="3.00"/>
    <type id="highway.secondary_link" priority="6" numLanes="1" speed="13.89" disallow="pedestrian tram rail_urban rail rail_electric rail_fast ship" oneway="0" sidewalkWidth="3.00"/>
    <type id="highway.service" priority="1" numLanes="1" speed="5.56" allow="pedestrian delivery bicycle" oneway="0"/>
    <type id="highway.service|railway.rail" priority="20" numLanes="1" speed="44.44" allow="pedestrian delivery bicycle rail" oneway="0"/>
    <type id="highway.stairs" priority="1" numLanes="1" speed="1.39" allow="pedestrian" oneway="1" width="2.00"/>
    <type id="highway.step" priority="1" numLanes="1" speed="1.39" allow="pedestrian" oneway="1" width="2.00"/>
    <type id="highway.steps" priority="1" numLanes="1" speed="1.39" allow="pedestrian" oneway="1" width="2.00"/>
    <type id="highway.tertiary" priority="10" numLanes="1" speed="13.89" disallow="pedestrian tram rail_urban rail rail_electric rail_fast ship" oneway="0" sidewalkWidth="3.00"/>
    <type id="highway.tertiary_link" priority="5" numLanes="1" speed="13.89" disallow="pedestrian tram rail_urban rail rail_electric rail_fast ship" oneway="0" sidewalkWidth="2.00"/>
    <type id="highway.track" priority="1" numLanes="1" speed="5.56" allow="pedestrian motorcycle moped bicycle" oneway="0"/>
    <type id="highway.trunk" priority="13" numLanes="2" speed="13.89" disallow="pedestrian bicycle tram rail_urban rail rail_electric rail_fast ship" oneway="0"/>
    <type id="highway.trunk_link" priority="8" numLanes="1" speed="13.89" disallow="pedestrian bicycle tram rail_urban rail rail_electric rail_fast ship" oneway="0"/>
    <type id="highway.unclassified" priority="4" numLanes="1" speed="13.89" disallow="pedestrian tram rail_urban rail rail_electric rail_fast ship" oneway="0" sidewalkWidth="2.00"/>
    <type id="highway.unclassified|railway.rail" priority="20" numLanes="1" speed="44.44" disallow="pedestrian tram rail_urban rail_electric rail_fast ship" oneway="0" sidewalkWidth="2.00"/>
    <type id="highway.unsurfaced" priority="1" numLanes="1" speed="8.33" disallow="tram rail_urban rail rail_electric rail_fast ship" oneway="0"/>
    <type id="railway.highspeed" priority="21" numLanes="1" speed="69.44" allow="rail_fast" oneway="1"/>
    <type id="railway.light_rail" priority="19" numLanes="1" speed="27.78" allow="rail_urban" oneway="1"/>
    <type id="railway.preserved" priority="16" numLanes="1" speed="27.78" allow="rail" oneway="1"/>
    <type id="railway.rail" priority="20" numLanes="1" speed="44.44" allow="rail" oneway="1"/>
    <type id="railway.subway" priority="18" numLanes="1" speed="27.78" allow="rail_urban" oneway="1"/>
    <type id="railway.tram" priority="17" numLanes="1" speed="13.89" allow="tram" oneway="1"/>
    <type id="route.ferry" priority="2" numLanes="1" speed="10.00" allow="ship" oneway="0" width="5.00"/>
    <type id="waterway.canal" priority="1" numLanes="1" speed="10.00" allow="ship" oneway="0" width="5.00"/>
    <type id="waterway.river" priority="1" numLanes="1" speed="10.00" allow="ship" oneway="0" width="7.00"/>

    <edge id=":248782310_0" function="internal">
        <lane id=":248782310_0_0" index="0" disallow="pedestrian tram rail_urban rail rail_electric rail_fast ship" speed="3.65" length="4.67" shape="14776.12,54957.31 14776.06,54958.75 14775.58,54959.51 14774.69,54959.58 14773.38,54958.97"/>
    </edge>
    <edge id=":248782310_c0" function="crossing" crossingEdges="-161847018#2 161847018#1">
        <lane id=":248782310_c0_0" index="0" allow="pedestrian" speed="2.78" length="6.40" width="4.00" shape="14773.06,54961.51 14778.52,54958.18"/>
    </edge>
    <edge id=":248782310_w0" function="walkingarea">
        <lane id=":248782310_w0_0" index="0" allow="pedestrian" speed="2.78" length="2.24" width="4.00" shape="14774.10,54963.22 14772.02,54959.80 14770.31,54960.84"/>
    </edge>
    <edge id=":248782310_w1" function="walkingarea">
        <lane id=":248782310_w1_0" index="0" allow="pedestrian" speed="2.78" length="2.24" width="4.00" shape="14779.19,54955.44 14777.48,54956.48 14779.56,54959.89"/>
    </edge>
    <edge id=":2756692672_0" function="internal">
        <lane id=":2756692672_0_0" index="0" disallow="pedestrian tram rail_urban rail rail_electric rail_fast ship" speed="8.33" length="0.10" shape="14699.87,54838.15 14699.87,54838.15"/>
    </edge>
    <edge id=":2756692672_1" function="internal">
        <lane id=":2756692672_1_0" index="0" disallow="pedestrian tram rail_urban rail rail_electric rail_fast ship" speed="8.33" length="0.10" shape="14702.61,54836.49 14702.61,54836.49"/>
    </edge>
    <edge id=":2756692672_w0" function="walkingarea">
        <lane id=":2756692672_w0_0" index="0" allow="pedestrian" speed="2.78" length="0.10" width="2.00" shape="14698.51,54838.99 14696.80,54840.03 14698.51,54838.98"/>
    </edge>
    <edge id=":2756692672_w1" function="walkingarea">
        <lane id=":2756692672_w1_0" index="0" allow="pedestrian" speed="2.78" length="0.10" width="2.00" shape="14703.97,54835.66 14705.68,54834.61 14703.97,54835.65"/>
    </edge>
    <edge id=":5299018918_0" function="internal">
        <lane id=":5299018918_0_0" index="0" allow="bicycle" speed="13.89" length="8.21" width="1.50" shape="14689.13,54893.82 14687.21,54895.28 14686.13,54896.58 14685.05,54897.89 14683.14,54899.35"/>
        <lane id=":5299018918_0_1" index="1" disallow="pedestrian bicycle tram rail_urban rail rail_electric rail_fast ship" speed="13.89" length="8.21" shape="14687.91,54891.81 14685.99,54893.27 14684.91,54894.58 14683.83,54895.88 14681.91,54897.34"/>
        <lane id=":5299018918_0_2" index="2" disallow="pedestrian bicycle tram rail_urban rail rail_electric rail_fast ship" speed="13.89" length="8.21" shape="14686.24,54889.08 14684.32,54890.54 14683.24,54891.85 14682.16,54893.15 14680.24,54894.61"/>
        <lane id=":5299018918_0_3" index="3" disallow="pedestrian bicycle tram rail_urban rail rail_electric rail_fast ship" speed="13.89" length="8.21" shape="14686.24,54889.08 14684.06,54890.12 14682.41,54890.48 14680.75,54890.85 14678.58,54891.88"/>
    </edge>
    <edge id=":5299018918_w0" function="walkingarea">
        <lane id=":5299018918_w0_0" index="0" allow="pedestrian" speed="2.78" length="8.16" width="3.00" shape="14683.53,54899.99 14685.09,54902.55 14691.08,54897.02 14689.52,54894.46 14688.11,54895.46 14687.19,54896.36 14686.52,54897.22 14685.85,54898.08 14684.94,54898.99"/>
    </edge>
    <edge id=":6837583242_0" function="internal">
        <lane id=":6837583242_0_0" index="0" allow="delivery bicycle" speed="5.73" length="6.73" shape="14631.69,54864.43 14630.72,54863.44 14629.39,54863.11 14627.71,54863.44 14625.67,54864.41"/>
    </edge>
    <edge id=":6837583242_1" function="internal">
        <lane id=":6837583242_1_0" index="0" disallow="pedestrian tram rail_urban rail rail_electric rail_fast ship" speed="8.33" length="9.40" shape="14631.69,54864.43 14626.84,54856.37"/>
    </edge>
    <edge id=":6837583242_2" function="internal">
        <lane id=":6837583242_2_0" index="0" allow="delivery bicycle" speed="5.69" length="6.71" shape="14624.05,54861.65 14625.87,54860.35 14626.95,54859.04 14627.27,54857.71 14626.84,54856.37"/>
    </edge>
    <edge id=":6837583242_3" function="internal">
        <lane id=":6837583242_3_0" index="0" allow="pedestrian delivery bicycle" speed="3.65" length="4.67" shape="14624.05,54861.65 14625.49,54861.74 14626.24,54862.22 14626.30,54863.12 14625.67,54864.41"/>
    </edge>
    <edge id=":6837583242_w0" function="walkingarea">
        <lane id=":6837583242_w0_0" index="0" allow="pedestrian" speed="2.78" length="5.70" width="3.20" shape="14625.47,54857.20 14623.76,54858.23 14623.24,54860.27 14624.86,54863.03 14626.48,54865.79 14628.60,54866.28 14630.32,54865.25"/>
    </edge>
    <edge id=":6837583246_0" function="internal">
        <lane id=":6837583246_0_0" index="0" allow="pedestrian delivery bicycle" speed="3.65" length="4.67" shape="14607.70,54878.82 14607.61,54880.26 14607.12,54881.00 14606.23,54881.06 14604.94,54880.42"/>
    </edge>
    <edge id=":9916479123_w0" function="walkingarea">
        <lane id=":9916479123_w0_0" index="0" allow="pedestrian" speed="2.78" length="2.02" width="2.00" shape="14717.52,54847.50 14719.22,54846.44 14718.54,54845.88 14718.09,54845.81 14717.57,54845.89 14716.97,54846.11 14716.30,54846.47 14717.34,54848.18 14719.90,54846.61 14718.86,54844.90 14717.76,54845.78 14717.45,54846.21 14717.31,54846.64 14717.34,54847.07"/>
    </edge>
    <edge id=":9916479124_w0" function="walkingarea">
        <lane id=":9916479124_w0_0" index="0" allow="pedestrian" speed="2.78" length="1.45" width="2.00" shape="14734.82,54871.25 14733.76,54869.55 14731.20,54871.13 14732.25,54872.84 14733.34,54871.97 14733.65,54871.54 14733.80,54871.11 14733.78,54870.68 14733.61,54870.25 14731.88,54871.25 14732.56,54871.85 14733.01,54871.92 14733.53,54871.85 14734.14,54871.62"/>
    </edge>
    <edge id=":J47_0" function="internal">
        <lane id=":J47_0_0" index="0" allow="bicycle" speed="13.89" length="8.22" width="1.50" shape="14671.55,54876.01 14678.54,54872.06"/>
        <lane id=":J47_0_1" index="1" disallow="pedestrian bicycle tram rail_urban rail rail_electric rail_fast ship" speed="13.89" length="8.22" shape="14672.80,54878.01 14679.76,54874.07"/>
        <lane id=":J47_0_2" index="2" disallow="pedestrian bicycle tram rail_urban rail rail_electric rail_fast ship" speed="13.89" length="8.22" shape="14674.49,54880.72 14681.41,54876.80"/>
        <lane id=":J47_0_3" index="3" disallow="pedestrian bicycle tram rail_urban rail rail_electric rail_fast ship" speed="13.89" length="8.22" shape="14674.49,54880.72 14676.86,54879.89 14678.77,54880.11 14680.68,54880.35 14683.07,54879.54"/>
    </edge>
    <edge id=":J47_w0" function="walkingarea">
        <lane id=":J47_w0_0" index="0" allow="pedestrian" speed="2.78" length="8.06" width="3.00" shape="14678.15,54871.41 14676.60,54868.85 14669.57,54872.83 14671.16,54875.38"/>
    </edge>
    <edge id=":cluster_1345594333_248782320_0" function="internal">
        <lane id=":cluster_1345594333_248782320_0_0" index="0" disallow="pedestrian tram rail_urban rail rail_electric rail_fast ship" speed="3.65" length="4.67" shape="14712.22,54995.97 14712.16,54997.41 14711.68,54998.17 14710.79,54998.24 14709.49,54997.64"/>
    </edge>
    <edge id=":cluster_1345594333_248782320_c0" function="crossing" crossingEdges="-23055276#1 23055276#1">
        <lane id=":cluster_1345594333_248782320_c0_0" index="0" allow="pedestrian" speed="2.78" length="6.40" width="4.00" shape="14709.16,55000.18 14714.63,54996.84"/>
    </edge>
    <edge id=":cluster_1345594333_248782320_w0" function="walkingarea">
        <lane id=":cluster_1345594333_248782320_w0_0" index="0" allow="pedestrian" speed="2.78" length="2.24" width="4.00" shape="14710.20,55001.88 14708.12,54998.47 14706.41,54999.51"/>
    </edge>
    <edge id=":cluster_1345594333_248782320_w1" function="walkingarea">
        <lane id=":cluster_1345594333_248782320_w1_0" index="0" allow="pedestrian" speed="2.78" length="2.24" width="4.00" shape="14715.29,54994.09 14713.58,54995.14 14715.67,54998.55"/>
    </edge>
    <edge id=":cluster_2003822357_2003822358_248782308_248783356_6837803237_6840644262_0" function="internal">
        <lane id=":cluster_2003822357_2003822358_248782308_248783356_6837803237_6840644262_0_0" index="0" allow="bicycle" speed="6.28" length="8.35" width="1.50" shape="14724.06,54879.58 14722.46,54877.46 14720.80,54876.26 14719.07,54875.99 14717.29,54876.64"/>
        <lane id=":cluster_2003822357_2003822358_248782308_248783356_6837803237_6840644262_0_1" index="1" disallow="pedestrian bicycle tram rail_urban rail rail_electric rail_fast ship" speed="7.11" length="11.01" shape="14724.79,54879.14 14722.61,54876.17 14720.43,54874.43 14718.24,54873.91 14716.06,54874.63"/>
    </edge>
    <edge id=":cluster_2003822357_2003822358_248782308_248783356_6837803237_6840644262_2" function="internal">
        <lane id=":cluster_2003822357_2003822358_248782308_248783356_6837803237_6840644262_2_0" index="0" disallow="pedestrian tram rail_urban rail rail_electric rail_fast ship" speed="8.33" length="35.26" shape="14724.79,54879.14 14706.48,54849.00"/>
    </edge>
    <edge id=":cluster_2003822357_2003822358_248782308_248783356_6837803237_6840644262_3" function="internal">
        <lane id=":cluster_2003822357_2003822358_248782308_248783356_6837803237_6840644262_3_0" index="0" allow="bicycle" speed="7.41" length="8.26" width="1.50" shape="14733.33,54866.91 14729.89,54869.34 14727.90,54871.84 14727.72,54872.67"/>
    </edge>
    <edge id=":cluster_2003822357_2003822358_248782308_248783356_6837803237_6840644262_4" function="internal">
        <lane id=":cluster_2003822357_2003822358_248782308_248783356_6837803237_6840644262_4_0" index="0" allow="bicycle" speed="13.89" length="18.76" width="1.50" shape="14733.33,54866.91 14717.29,54876.64"/>
    </edge>
    <edge id=":cluster_2003822357_2003822358_248782308_248783356_6837803237_6840644262_5" function="internal">
        <lane id=":cluster_2003822357_2003822358_248782308_248783356_6837803237_6840644262_5_0" index="0" disallow="pedestrian bicycle tram rail_urban rail rail_electric rail_fast ship" speed="8.22" length="7.78" shape="14732.11,54864.90 14728.42,54867.64 14726.67,54870.30"/>
    </edge>
    <edge id=":cluster_2003822357_2003822358_248782308_248783356_6837803237_6840644262_6" function="internal">
        <lane id=":cluster_2003822357_2003822358_248782308_248783356_6837803237_6840644262_6_0" index="0" disallow="pedestrian bicycle tram rail_urban rail rail_electric rail_fast ship" speed="13.89" length="18.77" shape="14732.11,54864.90 14716.06,54874.63"/>
        <lane id=":cluster_2003822357_2003822358_248782308_248783356_6837803237_6840644262_6_1" index="1" disallow="pedestrian bicycle tram rail_urban rail rail_electric rail_fast ship" speed="13.89" length="18.77" shape="14730.45,54862.16 14714.40,54871.90"/>
    </edge>
    <edge id=":cluster_2003822357_2003822358_248782308_248783356_6837803237_6840644262_19" function="internal">
        <lane id=":cluster_2003822357_2003822358_248782308_248783356_6837803237_6840644262_19_0" index="0" allow="bicycle" speed="7.41" length="4.55" width="1.50" shape="14727.72,54872.67 14727.35,54874.40 14728.25,54877.03"/>
    </edge>
    <edge id=":cluster_2003822357_2003822358_248782308_248783356_6837803237_6840644262_20" function="internal">
        <lane id=":cluster_2003822357_2003822358_248782308_248783356_6837803237_6840644262_20_0" index="0" disallow="pedestrian bicycle tram rail_urban rail rail_electric rail_fast ship" speed="8.22" length="7.53" shape="14726.67,54870.30 14726.43,54870.66 14726.13,54873.93 14727.52,54877.48"/>
    </edge>
    <edge id=":cluster_2003822357_2003822358_248782308_248783356_6837803237_6840644262_8" function="internal">
        <lane id=":cluster_2003822357_2003822358_248782308_248783356_6837803237_6840644262_8_0" index="0" allow="bicycle" speed="7.47" length="8.21" width="1.50" shape="14709.94,54846.90 14711.65,54848.56 14714.05,54849.03 14717.14,54848.32 14717.33,54848.22"/>
        <lane id=":cluster_2003822357_2003822358_248782308_248783356_6837803237_6840644262_8_1" index="1" disallow="pedestrian bicycle tram rail_urban rail rail_electric rail_fast ship" speed="8.13" length="10.65" shape="14709.21,54847.34 14711.50,54849.85 14714.42,54850.87 14717.96,54850.39 14718.49,54850.14"/>
    </edge>
    <edge id=":cluster_2003822357_2003822358_248782308_248783356_6837803237_6840644262_10" function="internal">
        <lane id=":cluster_2003822357_2003822358_248782308_248783356_6837803237_6840644262_10_0" index="0" disallow="pedestrian tram rail_urban rail rail_electric rail_fast ship" speed="8.33" length="35.26" shape="14709.21,54847.34 14727.52,54877.48"/>
    </edge>
    <edge id=":cluster_2003822357_2003822358_248782308_248783356_6837803237_6840644262_21" function="internal">
        <lane id=":cluster_2003822357_2003822358_248782308_248783356_6837803237_6840644262_21_0" index="0" allow="bicycle" speed="7.47" length="4.01" width="1.50" shape="14717.33,54848.22 14720.91,54846.41"/>
    </edge>
    <edge id=":cluster_2003822357_2003822358_248782308_248783356_6837803237_6840644262_22" function="internal">
        <lane id=":cluster_2003822357_2003822358_248782308_248783356_6837803237_6840644262_22_0" index="0" disallow="pedestrian bicycle tram rail_urban rail rail_electric rail_fast ship" speed="8.13" length="4.02" shape="14718.49,54850.14 14722.13,54848.42"/>
    </edge>
    <edge id=":cluster_2003822357_2003822358_248782308_248783356_6837803237_6840644262_11" function="internal">
        <lane id=":cluster_2003822357_2003822358_248782308_248783356_6837803237_6840644262_11_0" index="0" allow="bicycle" speed="5.87" length="3.47" width="1.50" shape="14704.80,54856.16 14706.24,54854.91 14706.84,54853.47"/>
    </edge>
    <edge id=":cluster_2003822357_2003822358_248782308_248783356_6837803237_6840644262_12" function="internal">
        <lane id=":cluster_2003822357_2003822358_248782308_248783356_6837803237_6840644262_12_0" index="0" allow="bicycle" speed="13.89" length="18.83" width="1.50" shape="14704.80,54856.16 14720.91,54846.41"/>
    </edge>
    <edge id=":cluster_2003822357_2003822358_248782308_248783356_6837803237_6840644262_13" function="internal">
        <lane id=":cluster_2003822357_2003822358_248782308_248783356_6837803237_6840644262_13_0" index="0" disallow="pedestrian bicycle tram rail_urban rail rail_electric rail_fast ship" speed="6.92" length="4.45" shape="14706.02,54858.17 14707.70,54856.60 14708.34,54854.55"/>
    </edge>
    <edge id=":cluster_2003822357_2003822358_248782308_248783356_6837803237_6840644262_14" function="internal">
        <lane id=":cluster_2003822357_2003822358_248782308_248783356_6837803237_6840644262_14_0" index="0" disallow="pedestrian bicycle tram rail_urban rail rail_electric rail_fast ship" speed="13.89" length="19.06" shape="14706.02,54858.17 14722.13,54848.42"/>
        <lane id=":cluster_2003822357_2003822358_248782308_248783356_6837803237_6840644262_14_1" index="1" disallow="pedestrian bicycle tram rail_urban rail rail_electric rail_fast ship" speed="13.89" length="19.06" shape="14706.02,54858.17 14711.10,54855.68 14714.90,54854.67 14718.71,54853.65 14723.79,54851.16"/>
        <lane id=":cluster_2003822357_2003822358_248782308_248783356_6837803237_6840644262_14_2" index="2" disallow="pedestrian bicycle tram rail_urban rail rail_electric rail_fast ship" speed="13.89" length="19.06" shape="14707.69,54860.90 14712.76,54858.42 14716.57,54857.40 14720.37,54856.38 14725.44,54853.90"/>
    </edge>
    <edge id=":cluster_2003822357_2003822358_248782308_248783356_6837803237_6840644262_17" function="internal">
        <lane id=":cluster_2003822357_2003822358_248782308_248783356_6837803237_6840644262_17_0" index="0" disallow="pedestrian bicycle tram rail_urban rail rail_electric rail_fast ship" speed="10.43" length="10.35" shape="14709.36,54863.63 14713.16,54862.88 14717.46,54864.94 14718.66,54866.16"/>
    </edge>
    <edge id=":cluster_2003822357_2003822358_248782308_248783356_6837803237_6840644262_18" function="internal">
        <lane id=":cluster_2003822357_2003822358_248782308_248783356_6837803237_6840644262_18_0" index="0" disallow="pedestrian bicycle tram rail_urban rail rail_electric rail_fast ship" speed="5.61" length="10.75" shape="14709.36,54863.63 14713.72,54863.81 14716.01,54865.24 14716.24,54867.94 14715.83,54868.83"/>
    </edge>
    <edge id=":cluster_2003822357_2003822358_248782308_248783356_6837803237_6840644262_23" function="internal">
        <lane id=":cluster_2003822357_2003822358_248782308_248783356_6837803237_6840644262_23_0" index="0" allow="bicycle" speed="5.87" length="4.25" width="1.50" shape="14706.84,54853.47 14706.88,54853.37 14706.71,54851.55 14705.75,54849.45"/>
    </edge>
    <edge id=":cluster_2003822357_2003822358_248782308_248783356_6837803237_6840644262_24" function="internal">
        <lane id=":cluster_2003822357_2003822358_248782308_248783356_6837803237_6840644262_24_0" index="0" disallow="pedestrian bicycle tram rail_urban rail rail_electric rail_fast ship" speed="6.92" length="5.91" shape="14708.34,54854.55 14707.93,54852.02 14706.48,54849.00"/>
    </edge>
    <edge id=":cluster_2003822357_2003822358_248782308_248783356_6837803237_6840644262_25" function="internal">
        <lane id=":cluster_2003822357_2003822358_248782308_248783356_6837803237_6840644262_25_0" index="0" disallow="pedestrian bicycle tram rail_urban rail rail_electric rail_fast ship" speed="10.43" length="14.42" shape="14718.66,54866.16 14722.24,54869.80 14727.52,54877.48"/>
    </edge>
    <edge id=":cluster_2003822357_2003822358_248782308_248783356_6837803237_6840644262_26" function="internal">
        <lane id=":cluster_2003822357_2003822358_248782308_248783356_6837803237_6840644262_26_0" index="0" disallow="pedestrian bicycle tram rail_urban rail rail_electric rail_fast ship" speed="5.61" length="3.39" shape="14715.83,54868.83 14714.40,54871.90"/>
    </edge>
    <edge id=":cluster_2003822357_2003822358_248782308_248783356_6837803237_6840644262_c0" function="crossing" crossingEdges="251158322#1">
        <lane id=":cluster_2003822357_2003822358_248782308_248783356_6837803237_6840644262_c0_0" index="0" allow="pedestrian" speed="2.78" length="7.90" width="4.00" shape="14727.92,54861.77 14731.97,54868.56"/>
    </edge>
    <edge id=":cluster_2003822357_2003822358_248782308_248783356_6837803237_6840644262_c1" function="crossing" crossingEdges="249375697#1">
        <lane id=":cluster_2003822357_2003822358_248782308_248783356_6837803237_6840644262_c1_0" index="0" allow="pedestrian" speed="2.78" length="11.10" width="4.00" shape="14718.81,54846.81 14724.56,54856.30"/>
    </edge>
    <edge id=":cluster_2003822357_2003822358_248782308_248783356_6837803237_6840644262_c2" function="crossing" crossingEdges="23055404#1 -23055404#2">
        <lane id=":cluster_2003822357_2003822358_248782308_248783356_6837803237_6840644262_c2_0" index="0" allow="pedestrian" speed="2.78" length="6.40" width="4.00" shape="14706.15,54851.54 14711.62,54848.22"/>
    </edge>
    <edge id=":cluster_2003822357_2003822358_248782308_248783356_6837803237_6840644262_c3" function="crossing" crossingEdges="161847018#1 -161847018#2">
        <lane id=":cluster_2003822357_2003822358_248782308_248783356_6837803237_6840644262_c3_0" index="0" allow="pedestrian" speed="2.78" length="6.40" width="4.00" shape="14727.85,54874.94 14722.38,54878.26"/>
    </edge>