<?xml version="1.0" encoding="UTF-8"?>

<!-- generated on 2023-04-20 01:25:45 by Eclipse SUMO netedit Version 1.16.0
<configuration xmlns:xsi="http://www.w3.org/2001/XMLSchema-instance" xsi:noNamespaceSchemaLocation="http://sumo.dlr.de/xsd/netconvertConfiguration.xsd">

    <input>
        <sumo-net-file value="D:\AppData\TeamProject\reinforcement_learning\rw_obs\data\3j.net.xml"/>
    </input>

    <output>
        <output-file value="D:\AppData\TeamProject\reinforcement_learning\rw_obs\data\3j.net.xml"/>
        <output.street-names value="true"/>
    </output>

    <processing>
        <geometry.min-radius.fix.railways value="false"/>
        <geometry.max-grade.fix value="false"/>
        <offset.disable-normalization value="true"/>
        <lefthand value="0"/>
    </processing>

    <junctions>
        <no-internal-links value="false"/>
        <no-turnarounds value="true"/>
        <junctions.corner-detail value="5"/>
        <junctions.limit-turn-speed value="5.50"/>
        <rectangular-lane-cut value="0"/>
    </junctions>

    <pedestrian>
        <walkingareas value="1"/>
    </pedestrian>

</configuration>
-->

<net version="1.16" junctionCornerDetail="5" walkingareas="true" limitTurnSpeed="5.50" xmlns:xsi="http://www.w3.org/2001/XMLSchema-instance" xsi:noNamespaceSchemaLocation="http://sumo.dlr.de/xsd/net_file.xsd">

    <location netOffset="-446830.08,-5426312.92" convBoundary="14423.96,54730.09,14922.49,55040.46" origBoundary="8.273244,48.987430,8.656789,49.781239" projParameter="+proj=utm +zone=32 +ellps=WGS84 +datum=WGS84 +units=m +no_defs"/>

    <type id="cycleway.lane" allow="bicycle" bikeLaneWidth="1.00"/>
    <type id="cycleway.lane|cycleway.track|highway.tertiary" priority="10" numLanes="1" speed="13.89" disallow="pedestrian tram rail_urban rail rail_electric rail_fast ship" oneway="0" sidewalkWidth="3.00" bikeLaneWidth="1.50"/>
    <type id="cycleway.lane|highway.primary" priority="12" numLanes="2" speed="13.89" disallow="pedestrian tram rail_urban rail rail_electric rail_fast ship" oneway="0" sidewalkWidth="3.00" bikeLaneWidth="1.00"/>
    <type id="cycleway.lane|highway.primary_link" priority="7" numLanes="1" speed="13.89" disallow="pedestrian tram rail_urban rail rail_electric rail_fast ship" oneway="0" sidewalkWidth="3.00" bikeLaneWidth="1.00"/>
    <type id="cycleway.lane|highway.residential" priority="3" numLanes="1" speed="13.89" disallow="pedestrian tram rail_urban rail rail_electric rail_fast ship" oneway="0" sidewalkWidth="2.00" bikeLaneWidth="1.00"/>
    <type id="cycleway.lane|highway.secondary" priority="11" numLanes="1" speed="13.89" disallow="pedestrian tram rail_urban rail rail_electric rail_fast ship" oneway="0" sidewalkWidth="3.00" bikeLaneWidth="1.00"/>
    <type id="cycleway.lane|highway.tertiary" priority="10" numLanes="1" speed="13.89" disallow="pedestrian tram rail_urban rail rail_electric rail_fast ship" oneway="0" sidewalkWidth="3.00" bikeLaneWidth="1.00"/>
    <type id="cycleway.lane|highway.unclassified" priority="4" numLanes="1" speed="13.89" disallow="pedestrian tram rail_urban rail rail_electric rail_fast ship" oneway="0" sidewalkWidth="2.00" bikeLaneWidth="1.00"/>
    <type id="cycleway.opposite_lane" allow="bicycle" bikeLaneWidth="1.00"/>
    <type id="cycleway.opposite_lane|highway.residential" priority="3" numLanes="1" speed="13.89" disallow="pedestrian tram rail_urban rail rail_electric rail_fast ship" oneway="0" sidewalkWidth="2.00" bikeLaneWidth="1.00"/>
    <type id="cycleway.opposite_track" allow="bicycle" bikeLaneWidth="1.50"/>
    <type id="cycleway.opposite_track|highway.residential" priority="3" numLanes="1" speed="13.89" disallow="pedestrian tram rail_urban rail rail_electric rail_fast ship" oneway="0" sidewalkWidth="2.00" bikeLaneWidth="1.50"/>
    <type id="cycleway.track" allow="bicycle" bikeLaneWidth="1.50"/>
    <type id="cycleway.track|highway.footway" priority="1" numLanes="1" speed="13.89" allow="pedestrian bicycle" oneway="1" width="3.20" bikeLaneWidth="1.50"/>
    <type id="cycleway.track|highway.living_street" priority="2" numLanes="1" speed="13.89" disallow="tram rail_urban rail rail_electric rail_fast ship" oneway="0" bikeLaneWidth="1.50"/>
    <type id="cycleway.track|highway.primary" priority="12" numLanes="2" speed="13.89" disallow="pedestrian tram rail_urban rail rail_electric rail_fast ship" oneway="0" sidewalkWidth="3.00" bikeLaneWidth="1.50"/>
    <type id="cycleway.track|highway.residential" priority="3" numLanes="1" speed="13.89" disallow="pedestrian tram rail_urban rail rail_electric rail_fast ship" oneway="0" sidewalkWidth="2.00" bikeLaneWidth="1.50"/>
    <type id="cycleway.track|highway.secondary" priority="11" numLanes="1" speed="13.89" disallow="pedestrian tram rail_urban rail rail_electric rail_fast ship" oneway="0" sidewalkWidth="3.00" bikeLaneWidth="1.50"/>
    <type id="cycleway.track|highway.tertiary" priority="10" numLanes="1" speed="13.89" disallow="pedestrian tram rail_urban rail rail_electric rail_fast ship" oneway="0" sidewalkWidth="3.00" bikeLaneWidth="1.50"/>
    <type id="cycleway.track|highway.unclassified" priority="4" numLanes="1" speed="13.89" disallow="pedestrian tram rail_urban rail rail_electric rail_fast ship" oneway="0" sidewalkWidth="2.00" bikeLaneWidth="1.50"/>
    <type id="highway.bridleway" priority="1" numLanes="1" speed="2.78" allow="pedestrian" oneway="1" width="2.00"/>
    <type id="highway.bus_guideway" priority="1" numLanes="1" speed="13.89" allow="bus" oneway="1"/>
    <type id="highway.cycleway" priority="1" numLanes="1" speed="5.56" allow="bicycle" oneway="0" width="1.00"/>
    <type id="highway.footway" priority="1" numLanes="1" speed="2.78" allow="pedestrian" oneway="1" width="2.00"/>
    <type id="highway.ford" priority="1" numLanes="1" speed="2.78" allow="army" oneway="0"/>
    <type id="highway.living_street" priority="2" numLanes="1" speed="2.78" disallow="tram rail_urban rail rail_electric rail_fast ship" oneway="0"/>
    <type id="highway.motorway" priority="14" numLanes="2" speed="27.78" allow="private emergency authority army vip passenger hov taxi bus coach delivery truck trailer motorcycle evehicle custom1 custom2" oneway="1"/>
    <type id="highway.motorway_link" priority="9" numLanes="1" speed="16.67" allow="private emergency authority army vip passenger hov taxi bus coach delivery truck trailer motorcycle evehicle custom1 custom2" oneway="1"/>
    <type id="highway.path" priority="1" numLanes="1" speed="5.56" allow="pedestrian bicycle" oneway="0" width="2.00"/>
    <type id="highway.pedestrian" priority="1" numLanes="1" speed="2.78" allow="pedestrian" oneway="1" width="2.00"/>
    <type id="highway.primary" priority="12" numLanes="2" speed="13.89" disallow="pedestrian tram rail_urban rail rail_electric rail_fast ship" oneway="0" sidewalkWidth="3.00"/>
    <type id="highway.primary_link" priority="7" numLanes="1" speed="13.89" disallow="pedestrian tram rail_urban rail rail_electric rail_fast ship" oneway="0" sidewalkWidth="3.00"/>
    <type id="highway.raceway" priority="15" numLanes="2" speed="83.33" allow="vip" oneway="0"/>
    <type id="highway.residential" priority="3" numLanes="1" speed="13.89" disallow="pedestrian tram rail_urban rail rail_electric rail_fast ship" oneway="0" sidewalkWidth="2.00"/>
    <type id="highway.secondary" priority="11" numLanes="1" speed="13.89" disallow="pedestrian tram rail_urban rail rail_electric rail_fast ship" oneway="0" sidewalkWidth="3.00"/>
    <type id="highway.secondary_link" priority="6" numLanes="1" speed="13.89" disallow="pedestrian tram rail_urban rail rail_electric rail_fast ship" oneway="0" sidewalkWidth="3.00"/>
    <type id="highway.service" priority="1" numLanes="1" speed="5.56" allow="pedestrian delivery bicycle" oneway="0"/>
    <type id="highway.service|railway.rail" priority="20" numLanes="1" speed="44.44" allow="pedestrian delivery bicycle rail" oneway="0"/>
    <type id="highway.stairs" priority="1" numLanes="1" speed="1.39" allow="pedestrian" oneway="1" width="2.00"/>
    <type id="highway.step" priority="1" numLanes="1" speed="1.39" allow="pedestrian" oneway="1" width="2.00"/>
    <type id="highway.steps" priority="1" numLanes="1" speed="1.39" allow="pedestrian" oneway="1" width="2.00"/>
    <type id="highway.tertiary" priority="10" numLanes="1" speed="13.89" disallow="pedestrian tram rail_urban rail rail_electric rail_fast ship" oneway="0" sidewalkWidth="3.00"/>
    <type id="highway.tertiary_link" priority="5" numLanes="1" speed="13.89" disallow="pedestrian tram rail_urban rail rail_electric rail_fast ship" oneway="0" sidewalkWidth="2.00"/>
    <type id="highway.track" priority="1" numLanes="1" speed="5.56" allow="pedestrian motorcycle moped bicycle" oneway="0"/>
    <type id="highway.trunk" priority="13" numLanes="2" speed="13.89" disallow="pedestrian bicycle tram rail_urban rail rail_electric rail_fast ship" oneway="0"/>
    <type id="highway.trunk_link" priority="8" numLanes="1" speed="13.89" disallow="pedestrian bicycle tram rail_urban rail rail_electric rail_fast ship" oneway="0"/>
    <type id="highway.unclassified" priority="4" numLanes="1" speed="13.89" disallow="pedestrian tram rail_urban rail rail_electric rail_fast ship" oneway="0" sidewalkWidth="2.00"/>
    <type id="highway.unclassified|railway.rail" priority="20" numLanes="1" speed="44.44" disallow="pedestrian tram rail_urban rail_electric rail_fast ship" oneway="0" sidewalkWidth="2.00"/>
    <type id="highway.unsurfaced" priority="1" numLanes="1" speed="8.33" disallow="tram rail_urban rail rail_electric rail_fast ship" oneway="0"/>
    <type id="railway.highspeed" priority="21" numLanes="1" speed="69.44" allow="rail_fast" oneway="1"/>
    <type id="railway.light_rail" priority="19" numLanes="1" speed="27.78" allow="rail_urban" oneway="1"/>
    <type id="railway.preserved" priority="16" numLanes="1" speed="27.78" allow="rail" oneway="1"/>
    <type id="railway.rail" priority="20" numLanes="1" speed="44.44" allow="rail" oneway="1"/>
    <type id="railway.subway" priority="18" numLanes="1" speed="27.78" allow="rail_urban" oneway="1"/>
    <type id="railway.tram" priority="17" numLanes="1" speed="13.89" allow="tram" oneway="1"/>
    <type id="route.ferry" priority="2" numLanes="1" speed="10.00" allow="ship" oneway="0" width="5.00"/>
    <type id="waterway.canal" priority="1" numLanes="1" speed="10.00" allow="ship" oneway="0" width="5.00"/>
    <type id="waterway.river" priority="1" numLanes="1" speed="10.00" allow="ship" oneway="0" width="7.00"/>

    <edge id=":248539906_w0" function="walkingarea">
        <lane id=":248539906_w0_0" index="0" allow="pedestrian" speed="2.78" length="5.20" width="2.00" shape="14638.71,55040.46 14637.00,55041.50 14643.15,55037.76 14641.44,55038.80"/>
    </edge>
    <edge id=":248782310_0" function="internal">
        <lane id=":248782310_0_0" index="0" disallow="pedestrian tram rail_urban rail rail_electric rail_fast ship" speed="3.65" length="4.67" shape="14776.12,54957.31 14776.06,54958.75 14775.58,54959.51 14774.69,54959.58 14773.38,54958.97"/>
    </edge>
    <edge id=":248782310_c0" function="crossing" crossingEdges="-161847018#2 161847018#1">
        <lane id=":248782310_c0_0" index="0" allow="pedestrian" speed="2.78" length="6.40" width="4.00" shape="14773.06,54961.51 14778.52,54958.18"/>
    </edge>
    <edge id=":248782310_w0" function="walkingarea">
        <lane id=":248782310_w0_0" index="0" allow="pedestrian" speed="2.78" length="2.24" width="4.00" shape="14774.10,54963.22 14772.02,54959.80 14770.31,54960.84"/>
    </edge>
    <edge id=":248782310_w1" function="walkingarea">
        <lane id=":248782310_w1_0" index="0" allow="pedestrian" speed="2.78" length="2.24" width="4.00" shape="14779.19,54955.44 14777.48,54956.48 14779.56,54959.89"/>
    </edge>
    <edge id=":2756692672_0" function="internal">
        <lane id=":2756692672_0_0" index="0" disallow="pedestrian tram rail_urban rail rail_electric rail_fast ship" speed="8.33" length="0.10" shape="14699.87,54838.15 14699.87,54838.15"/>
    </edge>
    <edge id=":2756692672_1" function="internal">
        <lane id=":2756692672_1_0" index="0" disallow="pedestrian tram rail_urban rail rail_electric rail_fast ship" speed="8.33" length="0.10" shape="14702.61,54836.49 14702.61,54836.49"/>
    </edge>
    <edge id=":2756692672_w0" function="walkingarea">
        <lane id=":2756692672_w0_0" index="0" allow="pedestrian" speed="2.78" length="0.10" width="2.00" shape="14698.51,54838.99 14696.80,54840.03 14698.51,54838.98"/>
    </edge>
    <edge id=":2756692672_w1" function="walkingarea">
        <lane id=":2756692672_w1_0" index="0" allow="pedestrian" speed="2.78" length="0.10" width="2.00" shape="14703.97,54835.66 14705.68,54834.61 14703.97,54835.65"/>
    </edge>
    <edge id=":5299018918_0" function="internal">
        <lane id=":5299018918_0_0" index="0" allow="bicycle" speed="13.89" length="8.21" width="1.50" shape="14689.13,54893.82 14687.21,54895.28 14686.13,54896.58 14685.05,54897.89 14683.14,54899.35"/>
        <lane id=":5299018918_0_1" index="1" disallow="pedestrian bicycle tram rail_urban rail rail_electric rail_fast ship" speed="13.89" length="8.21" shape="14687.91,54891.81 14685.99,54893.27 14684.91,54894.58 14683.83,54895.88 14681.91,54897.34"/>
        <lane id=":5299018918_0_2" index="2" disallow="pedestrian bicycle tram rail_urban rail rail_electric rail_fast ship" speed="13.89" length="8.21" shape="14686.24,54889.08 14684.32,54890.54 14683.24,54891.85 14682.16,54893.15 14680.24,54894.61"/>
        <lane id=":5299018918_0_3" index="3" disallow="pedestrian bicycle tram rail_urban rail rail_electric rail_fast ship" speed="13.89" length="8.21" shape="14686.24,54889.08 14684.06,54890.12 14682.41,54890.48 14680.75,54890.85 14678.58,54891.88"/>
    </edge>
    <edge id=":5299018918_w0" function="walkingarea">
        <lane id=":5299018918_w0_0" index="0" allow="pedestrian" speed="2.78" length="8.16" width="3.00" shape="14683.53,54899.99 14685.09,54902.55 14691.08,54897.02 14689.52,54894.46 14688.11,54895.46 14687.19,54896.36 14686.52,54897.22 14685.85,54898.08 14684.94,54898.99"/>
    </edge>
    <edge id=":6837583242_0" function="internal">
        <lane id=":6837583242_0_0" index="0" disallow="pedestrian tram rail_urban rail rail_electric rail_fast ship" speed="8.33" length="0.10" shape="14629.28,54860.42 14629.28,54860.42"/>
    </edge>
    <edge id=":6837583242_w0" function="walkingarea">
        <lane id=":6837583242_w0_0" index="0" allow="pedestrian" speed="2.78" length="0.10" width="2.00" shape="14627.91,54861.25 14626.19,54862.28 14627.91,54861.25"/>
    </edge>
    <edge id=":9916479123_w0" function="walkingarea">
        <lane id=":9916479123_w0_0" index="0" allow="pedestrian" speed="2.78" length="2.03" width="2.00" shape="14717.52,54847.50 14719.22,54846.44 14718.54,54845.88 14718.09,54845.81 14717.56,54845.89 14716.96,54846.11 14716.29,54846.47 14717.34,54848.18 14719.91,54846.63 14718.89,54844.91 14717.77,54845.77 14717.46,54846.20 14717.31,54846.64 14717.34,54847.07"/>
    </edge>
    <edge id=":9916479124_w0" function="walkingarea">
        <lane id=":9916479124_w0_0" index="0" allow="pedestrian" speed="2.78" length="0.47" width="2.00" shape="14733.39,54869.85 14731.65,54870.86 14732.70,54872.56 14733.52,54871.81 14733.70,54871.38 14733.74,54870.91 14733.64,54870.40"/>
    </edge>
    <edge id=":J47_0" function="internal">
        <lane id=":J47_0_0" index="0" allow="bicycle" speed="13.89" length="8.22" width="1.50" shape="14671.55,54876.01 14678.54,54872.06"/>
        <lane id=":J47_0_1" index="1" disallow="pedestrian bicycle tram rail_urban rail rail_electric rail_fast ship" speed="13.89" length="8.22" shape="14672.80,54878.01 14679.76,54874.07"/>
        <lane id=":J47_0_2" index="2" disallow="pedestrian bicycle tram rail_urban rail rail_electric rail_fast ship" speed="13.89" length="8.22" shape="14674.49,54880.72 14681.41,54876.80"/>
        <lane id=":J47_0_3" index="3" disallow="pedestrian bicycle tram rail_urban rail rail_electric rail_fast ship" speed="13.89" length="8.22" shape="14674.49,54880.72 14676.86,54879.89 14678.77,54880.11 14680.68,54880.35 14683.07,54879.54"/>
    </edge>
    <edge id=":J47_w0" function="walkingarea">
        <lane id=":J47_w0_0" index="0" allow="pedestrian" speed="2.78" length="8.06" width="3.00" shape="14678.15,54871.41 14676.60,54868.85 14669.57,54872.83 14671.16,54875.38"/>
    </edge>
    <edge id=":cluster_1345594333_248782320_0" function="internal">
        <lane id=":cluster_1345594333_248782320_0_0" index="0" disallow="pedestrian tram rail_urban rail rail_electric rail_fast ship" speed="3.65" length="4.67" shape="14712.22,54995.97 14712.16,54997.41 14711.68,54998.17 14710.79,54998.24 14709.49,54997.64"/>
    </edge>
    <edge id=":cluster_1345594333_248782320_c0" function="crossing" crossingEdges="-23055276#1 23055276#1">
        <lane id=":cluster_1345594333_248782320_c0_0" index="0" allow="pedestrian" speed="2.78" length="6.40" width="4.00" shape="14709.16,55000.18 14714.63,54996.84"/>
    </edge>
    <edge id=":cluster_1345594333_248782320_w0" function="walkingarea">
        <lane id=":cluster_1345594333_248782320_w0_0" index="0" allow="pedestrian" speed="2.78" length="2.24" width="4.00" shape="14710.20,55001.88 14708.12,54998.47 14706.41,54999.51"/>
    </edge>
    <edge id=":cluster_1345594333_248782320_w1" function="walkingarea">
        <lane id=":cluster_1345594333_248782320_w1_0" index="0" allow="pedestrian" speed="2.78" length="2.24" width="4.00" shape="14715.29,54994.09 14713.58,54995.14 14715.67,54998.55"/>
    </edge>
    <edge id=":cluster_1676564737_2068643909_0" function="internal">
        <lane id=":cluster_1676564737_2068643909_0_0" index="0" disallow="pedestrian tram rail_urban rail rail_electric rail_fast ship" speed="8.33" length="4.04" shape="14532.89,54867.80 14534.99,54871.25"/>
    </edge>
    <edge id=":cluster_1676564737_2068643909_w0" function="walkingarea">
        <lane id=":cluster_1676564737_2068643909_w0_0" index="0" allow="pedestrian" speed="2.78" length="4.02" width="2.00" shape="14536.36,54870.42 14538.08,54869.39 14535.99,54865.96 14534.27,54866.98"/>
    </edge>
    <edge id=":cluster_2003822357_2003822358_248782308_248783356_6837803237_6840644262_0" function="internal">
        <lane id=":cluster_2003822357_2003822358_248782308_248783356_6837803237_6840644262_0_0" index="0" allow="bicycle" speed="6.28" length="8.35" width="1.50" shape="14724.06,54879.58 14722.46,54877.46 14720.80,54876.26 14719.07,54875.99 14717.29,54876.64"/>
        <lane id=":cluster_2003822357_2003822358_248782308_248783356_6837803237_6840644262_0_1" index="1" disallow="pedestrian bicycle tram rail_urban rail rail_electric rail_fast ship" speed="7.11" length="11.01" shape="14724.79,54879.14 14722.61,54876.17 14720.43,54874.43 14718.24,54873.91 14716.06,54874.63"/>
    </edge>
    <edge id=":cluster_2003822357_2003822358_248782308_248783356_6837803237_6840644262_2" function="internal">
        <lane id=":cluster_2003822357_2003822358_248782308_248783356_6837803237_6840644262_2_0" index="0" allow="bicycle" speed="7.41" length="12.81" width="1.50" shape="14733.33,54866.91 14729.89,54869.34 14727.90,54871.84 14727.35,54874.40 14728.25,54877.03"/>
    </edge>
    <edge id=":cluster_2003822357_2003822358_248782308_248783356_6837803237_6840644262_3" function="internal">
        <lane id=":cluster_2003822357_2003822358_248782308_248783356_6837803237_6840644262_3_0" index="0" allow="bicycle" speed="13.89" length="18.76" width="1.50" shape="14733.33,54866.91 14717.29,54876.64"/>
    </edge>
    <edge id=":cluster_2003822357_2003822358_248782308_248783356_6837803237_6840644262_4" function="internal">
        <lane id=":cluster_2003822357_2003822358_248782308_248783356_6837803237_6840644262_4_0" index="0" disallow="pedestrian bicycle tram rail_urban rail rail_electric rail_fast ship" speed="8.22" length="7.78" shape="14732.11,54864.90 14728.42,54867.64 14726.67,54870.30"/>
    </edge>
    <edge id=":cluster_2003822357_2003822358_248782308_248783356_6837803237_6840644262_5" function="internal">
        <lane id=":cluster_2003822357_2003822358_248782308_248783356_6837803237_6840644262_5_0" index="0" disallow="pedestrian bicycle tram rail_urban rail rail_electric rail_fast ship" speed="13.89" length="18.77" shape="14732.11,54864.90 14716.06,54874.63"/>
        <lane id=":cluster_2003822357_2003822358_248782308_248783356_6837803237_6840644262_5_1" index="1" disallow="pedestrian bicycle tram rail_urban rail rail_electric rail_fast ship" speed="13.89" length="18.77" shape="14730.45,54862.16 14714.40,54871.90"/>
    </edge>
    <edge id=":cluster_2003822357_2003822358_248782308_248783356_6837803237_6840644262_17" function="internal">
        <lane id=":cluster_2003822357_2003822358_248782308_248783356_6837803237_6840644262_17_0" index="0" disallow="pedestrian bicycle tram rail_urban rail rail_electric rail_fast ship" speed="8.22" length="7.53" shape="14726.67,54870.30 14726.43,54870.66 14726.13,54873.93 14727.52,54877.48"/>
    </edge>
    <edge id=":cluster_2003822357_2003822358_248782308_248783356_6837803237_6840644262_7" function="internal">
        <lane id=":cluster_2003822357_2003822358_248782308_248783356_6837803237_6840644262_7_0" index="0" allow="bicycle" speed="7.47" length="12.22" width="1.50" shape="14709.94,54846.90 14711.65,54848.56 14714.05,54849.03 14717.14,54848.32 14720.91,54846.41"/>
        <lane id=":cluster_2003822357_2003822358_248782308_248783356_6837803237_6840644262_7_1" index="1" disallow="pedestrian bicycle tram rail_urban rail rail_electric rail_fast ship" speed="8.13" length="14.67" shape="14709.21,54847.34 14711.50,54849.85 14714.42,54850.87 14717.96,54850.39 14722.13,54848.42"/>
    </edge>
    <edge id=":cluster_2003822357_2003822358_248782308_248783356_6837803237_6840644262_9" function="internal">
        <lane id=":cluster_2003822357_2003822358_248782308_248783356_6837803237_6840644262_9_0" index="0" allow="bicycle" speed="5.87" length="7.72" width="1.50" shape="14704.80,54856.16 14706.24,54854.91 14706.88,54853.37 14706.71,54851.55 14705.75,54849.45"/>
    </edge>
    <edge id=":cluster_2003822357_2003822358_248782308_248783356_6837803237_6840644262_10" function="internal">
        <lane id=":cluster_2003822357_2003822358_248782308_248783356_6837803237_6840644262_10_0" index="0" allow="bicycle" speed="13.89" length="18.83" width="1.50" shape="14704.80,54856.16 14720.91,54846.41"/>
    </edge>
    <edge id=":cluster_2003822357_2003822358_248782308_248783356_6837803237_6840644262_11" function="internal">
        <lane id=":cluster_2003822357_2003822358_248782308_248783356_6837803237_6840644262_11_0" index="0" disallow="pedestrian bicycle tram rail_urban rail rail_electric rail_fast ship" speed="6.92" length="4.45" shape="14706.02,54858.17 14707.70,54856.60 14708.34,54854.55"/>
    </edge>
    <edge id=":cluster_2003822357_2003822358_248782308_248783356_6837803237_6840644262_12" function="internal">
        <lane id=":cluster_2003822357_2003822358_248782308_248783356_6837803237_6840644262_12_0" index="0" disallow="pedestrian bicycle tram rail_urban rail rail_electric rail_fast ship" speed="13.89" length="19.06" shape="14706.02,54858.17 14722.13,54848.42"/>
        <lane id=":cluster_2003822357_2003822358_248782308_248783356_6837803237_6840644262_12_1" index="1" disallow="pedestrian bicycle tram rail_urban rail rail_electric rail_fast ship" speed="13.89" length="19.06" shape="14706.02,54858.17 14711.10,54855.68 14714.90,54854.67 14718.71,54853.65 14723.79,54851.16"/>
        <lane id=":cluster_2003822357_2003822358_248782308_248783356_6837803237_6840644262_12_2" index="2" disallow="pedestrian bicycle tram rail_urban rail rail_electric rail_fast ship" speed="13.89" length="19.06" shape="14707.69,54860.90 14712.76,54858.42 14716.57,54857.40 14720.37,54856.38 14725.44,54853.90"/>
    </edge>
    <edge id=":cluster_2003822357_2003822358_248782308_248783356_6837803237_6840644262_15" function="internal">
        <lane id=":cluster_2003822357_2003822358_248782308_248783356_6837803237_6840644262_15_0" index="0" disallow="pedestrian bicycle tram rail_urban rail rail_electric rail_fast ship" speed="10.43" length="10.35" shape="14709.36,54863.63 14713.16,54862.88 14717.46,54864.94 14718.66,54866.16"/>
    </edge>
    <edge id=":cluster_2003822357_2003822358_248782308_248783356_6837803237_6840644262_16" function="internal">
        <lane id=":cluster_2003822357_2003822358_248782308_248783356_6837803237_6840644262_16_0" index="0" disallow="pedestrian bicycle tram rail_urban rail rail_electric rail_fast ship" speed="5.61" length="10.75" shape="14709.36,54863.63 14713.72,54863.81 14716.01,54865.24 14716.24,54867.94 14715.83,54868.83"/>
    </edge>
    <edge id=":cluster_2003822357_2003822358_248782308_248783356_6837803237_6840644262_18" function="internal">
        <lane id=":cluster_2003822357_2003822358_248782308_248783356_6837803237_6840644262_18_0" index="0" disallow="pedestrian bicycle tram rail_urban rail rail_electric rail_fast ship" speed="6.92" length="5.91" shape="14708.34,54854.55 14707.93,54852.02 14706.48,54849.00"/>
    </edge>
    <edge id=":cluster_2003822357_2003822358_248782308_248783356_6837803237_6840644262_19" function="internal">
        <lane id=":cluster_2003822357_2003822358_248782308_248783356_6837803237_6840644262_19_0" index="0" disallow="pedestrian bicycle tram rail_urban rail rail_electric rail_fast ship" speed="10.43" length="14.42" shape="14718.66,54866.16 14722.24,54869.80 14727.52,54877.48"/>
    </edge>
    <edge id=":cluster_2003822357_2003822358_248782308_248783356_6837803237_6840644262_20" function="internal">
        <lane id=":cluster_2003822357_2003822358_248782308_248783356_6837803237_6840644262_20_0" index="0" disallow="pedestrian bicycle tram rail_urban rail rail_electric rail_fast ship" speed="5.61" length="3.39" shape="14715.83,54868.83 14714.40,54871.90"/>
    </edge>
    <edge id=":cluster_2003822357_2003822358_248782308_248783356_6837803237_6840644262_w0" function="walkingarea">
        <lane id=":cluster_2003822357_2003822358_248782308_248783356_6837803237_6840644262_w0_0" index="0" allow="pedestrian" speed="2.78" length="4.42" width="3.00" shape="14728.89,54876.64 14730.60,54875.60 14733.25,54872.22 14732.21,54870.52 14732.27,54871.92 14734.00,54870.92 14735.24,54870.13 14733.74,54867.53 14731.44,54869.04 14729.77,54870.53 14728.67,54872.04 14728.16,54873.56 14728.23,54875.09"/>
    </edge>
    <edge id=":cluster_2003822357_2003822358_248782308_248783356_6837803237_6840644262_w1" function="walkingarea">
        <lane id=":cluster_2003822357_2003822358_248782308_248783356_6837803237_6840644262_w1_0" index="0" allow="pedestrian" speed="2.78" length="2.59" width="3.00" shape="14720.52,54845.77 14718.97,54843.21 14718.10,54844.66 14716.41,54845.73"/>
    </edge>
    <edge id=":cluster_2003822357_2003822358_248782308_248783356_6837803237_6840644262_w2" function="walkingarea">
        <lane id=":cluster_2003822357_2003822358_248782308_248783356_6837803237_6840644262_w2_0" index="0" allow="pedestrian" speed="2.78" length="6.22" width="2.00" shape="14718.11,54847.71 14717.07,54846.00 14712.29,54845.47 14710.58,54846.51"/>
    </edge>
    <edge id=":cluster_2003822357_2003822358_248782308_248783356_6837803237_6840644262_w3" function="walkingarea">
        <lane id=":cluster_2003822357_2003822358_248782308_248783356_6837803237_6840644262_w3_0" index="0" allow="pedestrian" speed="2.78" length="3.94" width="3.00" shape="14705.11,54849.84 14703.40,54850.87 14702.85,54852.96 14704.40,54855.53 14705.27,54854.85 14705.84,54854.07 14706.10,54853.18 14706.07,54852.18 14705.74,54851.06"/>
    </edge>
    <edge id=":cluster_2003822357_2003822358_248782308_248783356_6837803237_6840644262_w4" function="walkingarea">
        <lane id=":cluster_2003822357_2003822358_248782308_248783356_6837803237_6840644262_w4_0" index="0" allow="pedestrian" speed="2.78" length="4.54" width="3.00" shape="14717.68,54877.28 14719.24,54879.84 14721.71,54881.01 14723.42,54879.97 14722.50,54878.64 14721.56,54877.66 14720.61,54877.04 14719.65,54876.76 14718.67,54876.84"/>
    </edge>
    <edge id=":cluster_248783357_6837763859_c0" function="crossing" crossingEdges="-270655649#0 270655649#0">
        <lane id=":cluster_248783357_6837763859_c0_0" index="0" allow="pedestrian" speed="2.78" length="6.40" width="4.00" shape="14651.49,54749.52 14646.02,54752.85"/>
    </edge>
    <edge id=":cluster_248783357_6837763859_w0" function="walkingarea">
        <lane id=":cluster_248783357_6837763859_w0_0" index="0" allow="pedestrian" speed="2.78" length="2.24" width="4.00" shape="14650.45,54747.82 14652.53,54751.23 14654.23,54750.19"/>
    </edge>
    <edge id=":cluster_248783357_6837763859_w1" function="walkingarea">
        <lane id=":cluster_248783357_6837763859_w1_0" index="0" allow="pedestrian" speed="2.78" length="2.24" width="4.00" shape="14645.35,54755.60 14647.06,54754.56 14644.98,54751.15"/>
    </edge>
    <edge id=":cluster_6837803236_cluster_255196633_cluster_255196642_cluster_1531035453_1531035457_2003751502_2003822359_255196631_6837803239_6837803240_9916500850_9916500851_9916500852_9916500853_9916500854_cluster_248782314_6840644260_w0" function="walkingarea">
        <lane id=":cluster_6837803236_cluster_255196633_cluster_255196642_cluster_1531035453_1531035457_2003751502_2003822359_255196631_6837803239_6837803240_9916500850_9916500851_9916500852_9916500853_9916500854_cluster_248782314_6840644260_w0_0" index="0" allow="pedestrian" speed="2.78" length="17.65" width="3.00" shape="14933.20,54747.94 14934.75,54750.52 14920.06,54725.97 14921.07,54727.70 14919.62,54725.22 14921.13,54727.81"/>
    </edge>
    <edge id=":cluster_8039877988_9916510859_cluster_1126992321_1126992336_132331226_1743822114_2003761180_26936935_6837803235_6840644264_0" function="internal">